/*--------------------------------*- C++ -*----------------------------------*\
| =========                 |                                                 |
| \\      /  F ield         | OpenFOAM: The Open Source CFD Toolbox           |
|  \\    /   O peration     | Version:  2012                                  |
|   \\  /    A nd           | Website:  www.openfoam.com                      |
|    \\/     M anipulation  |                                                 |
\*---------------------------------------------------------------------------*/
FoamFile
{
    version     2.0;
    format      ascii;
    class       extendedFeatureEdgeMesh;
    location    "constant/extendedFeatureEdgeMesh";
    object      Sphere.extendedFeatureEdgeMesh;
}
// * * * * * * * * * * * * * * * * * * * * * * * * * * * * * * * * * * * * * //

// points

2489
(
(2.54319 1.50577 2.0019)
(2.54252 1.50956 2.0019)
(2.5415 1.51328 2.0019)
(2.54017 1.5169 2.0019)
(2.58547 1.51529 2.0076)
(2.53852 1.52038 2.0019)
(2.58378 1.52278 2.0076)
(2.53657 1.52371 2.0019)
(2.58144 1.5301 2.0076)
(2.62827 1.51713 2.01704)
(2.53433 1.52685 2.0019)
(2.57846 1.53718 2.0076)
(2.62626 1.5284 2.01704)
(2.53182 1.52978 2.0019)
(2.57487 1.54396 2.0076)
(2.62325 1.53945 2.01704)
(2.52906 1.53247 2.0019)
(2.57069 1.55041 2.0076)
(2.61928 1.55018 2.01704)
(2.52608 1.53491 2.0019)
(2.66834 1.53011 2.03015)
(2.56596 1.55646 2.0076)
(2.61438 1.56053 2.01704)
(2.52289 1.53708 2.0019)
(2.66502 1.54487 2.03015)
(2.56071 1.56207 2.0076)
(2.7111 1.50935 2.04685)
(2.60858 1.5704 2.01704)
(2.51953 1.53896 2.0019)
(2.66041 1.55928 2.03015)
(2.55499 1.56719 2.0076)
(2.60194 1.57972 2.01704)
(2.51601 1.54053 2.0019)
(2.65454 1.57322 2.03015)
(2.54883 1.57179 2.0076)
(2.70616 1.54637 2.04685)
(2.59449 1.58842 2.01704)
(2.51236 1.54179 2.0019)
(2.64746 1.5866 2.03015)
(2.5423 1.57582 2.0076)
(2.70125 1.56441 2.04685)
(2.58631 1.59643 2.01704)
(2.50862 1.54272 2.0019)
(2.74902 1.52209 2.06699)
(2.63923 1.59929 2.03015)
(2.53543 1.57927 2.0076)
(2.69477 1.58194 2.04685)
(2.57745 1.60368 2.01704)
(2.50481 1.54331 2.0019)
(2.74609 1.54402 2.06699)
(2.62991 1.61121 2.03015)
(2.52829 1.58209 2.0076)
(2.68677 1.59884 2.04685)
(2.56798 1.61012 2.01704)
(2.50096 1.54357 2.0019)
(2.74124 1.5656 2.06699)
(2.61958 1.62225 2.03015)
(2.52092 1.58427 2.0076)
(2.78651 1.51269 2.09042)
(2.6773 1.61496 2.04685)
(2.55798 1.61569 2.01704)
(2.49711 1.54348 2.0019)
(2.7345 1.58666 2.06699)
(2.6083 1.63234 2.03015)
(2.51339 1.58579 2.0076)
(2.66645 1.63018 2.04685)
(2.54753 1.62036 2.01704)
(2.49328 1.54306 2.0019)
(2.72592 1.60705 2.06699)
(2.59618 1.6414 2.03015)
(2.50576 1.58663 2.0076)
(2.7798 1.56293 2.09042)
(2.65429 1.64438 2.04685)
(2.53671 1.62409 2.01704)
(2.4895 1.54229 2.0019)
(2.71558 1.62659 2.06699)
(2.58331 1.64934 2.03015)
(2.49808 1.5868 2.0076)
(2.77314 1.58741 2.09042)
(2.64093 1.65745 2.04685)
(2.5256 1.62685 2.01704)
(2.4858 1.5412 2.0019)
(2.82014 1.5284 2.11698)
(2.70355 1.64515 2.06699)
(2.56979 1.65612 2.03015)
(2.49042 1.58629 2.0076)
(2.76435 1.61121 2.09042)
(2.62646 1.66929 2.04685)
(2.51429 1.62862 2.01704)
(2.48222 1.53978 2.0019)
(2.81637 1.55659 2.11698)
(2.68992 1.66257 2.06699)
(2.55572 1.66168 2.03015)
(2.48283 1.58511 2.0076)
(2.75348 1.63414 2.09042)
(2.61101 1.6798 2.04685)
(2.50286 1.62938 2.01704)
(2.47877 1.53806 2.0019)
(2.81013 1.58433 2.11698)
(2.67481 1.67872 2.06699)
(2.54121 1.66597 2.03015)
(2.47537 1.58326 2.0076)
(2.85321 1.51564 2.14645)
(2.74064 1.65602 2.09042)
(2.59468 1.68891 2.04685)
(2.49142 1.62912 2.01704)
(2.47549 1.53603 2.0019)
(2.80147 1.61141 2.11698)
(2.65833 1.69347 2.06699)
(2.52638 1.66896 2.03015)
(2.46811 1.58075 2.0076)
(2.7259 1.67668 2.09042)
(2.57761 1.69654 2.04685)
(2.48004 1.62786 2.01704)
(2.4724 1.53372 2.0019)
(2.79044 1.63761 2.11698)
(2.64061 1.70671 2.06699)
(2.51134 1.67063 2.03015)
(2.4611 1.57762 2.0076)
(2.84494 1.57758 2.14645)
(2.70941 1.69595 2.09042)
(2.55994 1.70263 2.04685)
(2.46882 1.6256 2.01704)
(2.46953 1.53115 2.0019)
(2.77714 1.66274 2.11698)
(2.62179 1.71833 2.06699)
(2.49622 1.67097 2.03015)
(2.45439 1.57388 2.0076)
(2.83673 1.60776 2.14645)
(2.69127 1.71369 2.09042)
(2.5418 1.70713 2.04685)
(2.45784 1.62235 2.01704)
(2.46689 1.52834 2.0019)
(2.88152 1.53385 2.17861)
(2.76167 1.6866 2.11698)
(2.60202 1.72824 2.06699)
(2.48112 1.66997 2.03015)
(2.44804 1.56956 2.0076)
(2.82589 1.6371 2.14645)
(2.67163 1.72976 2.09042)
(2.52333 1.71002 2.04685)
(2.44719 1.61814 2.01704)
(2.46452 1.5253 2.0019)
(2.87704 1.56744 2.17861)
(2.74416 1.709 2.11698)
(2.58145 1.73636 2.06699)
(2.46617 1.66763 2.03015)
(2.44209 1.56469 2.0076)
(2.81249 1.66537 2.14645)
(2.65066 1.74403 2.09042)
(2.50467 1.71126 2.04685)
(2.43695 1.61301 2.01704)
(2.46242 1.52207 2.0019)
(2.8696 1.6005 2.17861)
(2.72473 1.72976 2.11698)
(2.56024 1.74263 2.06699)
(2.45149 1.66399 2.03015)
(2.4366 1.55932 2.0076)
(2.90917 1.51812 2.21321)
(2.79666 1.69234 2.14645)
(2.6285 1.75639 2.09042)
(2.48599 1.71084 2.04685)
(2.42721 1.607 2.01704)
(2.46062 1.51866 2.0019)
(2.85928 1.63277 2.17861)
(2.70355 1.74872 2.11698)
(2.53856 1.74701 2.06699)
(2.43719 1.65906 2.03015)
(2.43161 1.55349 2.0076)
(2.7785 1.71781 2.14645)
(2.60534 1.76674 2.09042)
(2.46741 1.70878 2.04685)
(2.41804 1.60015 2.01704)
(2.45912 1.51511 2.0019)
(2.84613 1.664 2.17861)
(2.68077 1.76574 2.11698)
(2.51658 1.74945 2.06699)
(2.42338 1.65288 2.03015)
(2.42715 1.54723 2.0076)
(2.89959 1.58988 2.21321)
(2.75816 1.74157 2.14645)
(2.58135 1.77501 2.09042)
(2.44908 1.70508 2.04685)
(2.40951 1.59251 2.01704)
(2.45795 1.51143 2.0019)
(2.83029 1.69395 2.17861)
(2.65657 1.78068 2.11698)
(2.49447 1.74994 2.06699)
(2.41016 1.64551 2.03015)
(2.42326 1.54061 2.0076)
(2.89009 1.62484 2.21321)
(2.7358 1.76344 2.14645)
(2.55673 1.78112 2.09042)
(2.43115 1.69978 2.04685)
(2.40169 1.58415 2.01704)
(2.4571 1.50767 2.0019)
(2.93132 1.53827 2.25)
(2.81185 1.72238 2.17861)
(2.63116 1.79341 2.11698)
(2.4724 1.74847 2.06699)
(2.39766 1.637 2.03015)
(2.41997 1.53367 2.0076)
(2.87753 1.65883 2.21321)
(2.71159 1.78325 2.14645)
(2.53166 1.78504 2.09042)
(2.41377 1.69291 2.04685)
(2.39464 1.57514 2.01704)
(2.45659 1.50385 2.0019)
(2.92625 1.57624 2.25)
(2.79098 1.74908 2.17861)
(2.60471 1.80386 2.11698)
(2.45055 1.74506 2.06699)
(2.38595 1.62742 2.03015)
(2.41731 1.52646 2.0076)
(2.86201 1.69157 2.21321)
(2.68573 1.80084 2.14645)
(2.50634 1.78672 2.09042)
(2.39706 1.68454 2.04685)
(2.38841 1.56553 2.01704)
(2.91784 1.61361 2.25)
(2.76782 1.77382 2.17861)
(2.57745 1.81192 2.11698)
(2.42909 1.73973 2.06699)
(2.37513 1.61684 2.03015)
(2.41529 1.51905 2.0076)
(2.95271 1.52005 2.28869)
(2.84366 1.72282 2.21321)
(2.65842 1.81608 2.14645)
(2.48098 1.78616 2.09042)
(2.38115 1.67472 2.04685)
(2.38305 1.55541 2.01704)
(2.45659 1.49615 2.0019)
(2.90617 1.6501 2.25)
(2.74258 1.79642 2.17861)
(2.54958 1.81755 2.11698)
(2.40817 1.73252 2.06699)
(2.36529 1.60535 2.03015)
(2.41394 1.51149 2.0076)
(2.82263 1.75232 2.21321)
(2.62986 1.82884 2.14645)
(2.45576 1.78336 2.09042)
(2.36617 1.66353 2.04685)
(2.37861 1.54486 2.01704)
(2.4571 1.49233 2.0019)
(2.89131 1.68541 2.25)
(2.71543 1.81669 2.17861)
(2.52132 1.82069 2.11698)
(2.38798 1.7235 2.06699)
(2.35651 1.59303 2.03015)
(2.41326 1.50384 2.0076)
(2.94211 1.59944 2.28869)
(2.79906 1.77984 2.21321)
(2.60029 1.83903 2.14645)
(2.43089 1.77834 2.09042)
(2.35224 1.65106 2.04685)
(2.37512 1.53395 2.01704)
(2.45795 1.48857 2.0019)
(2.87339 1.71927 2.25)
(2.6866 1.83449 2.17861)
(2.49289 1.82132 2.11698)
(2.36867 1.71273 2.06699)
(2.34885 1.57999 2.03015)
(2.41326 1.49616 2.0076)
(2.93159 1.63812 2.28869)
(2.77316 1.80518 2.21321)
(2.56993 1.84657 2.14645)
(2.40656 1.77114 2.09042)
(2.33947 1.63741 2.04685)
(2.37261 1.52278 2.01704)
(2.45912 1.48489 2.0019)
(2.96801 1.54153 2.32899)
(2.85255 1.75141 2.25)
(2.65631 1.84968 2.17861)
(2.46452 1.81943 2.11698)
(2.35038 1.70029 2.06699)
(2.34237 1.56632 2.03015)
(2.41394 1.48851 2.0076)
(2.91769 1.67573 2.28869)
(2.74512 1.82813 2.21321)
(2.53903 1.85139 2.14645)
(2.38297 1.76182 2.09042)
(2.32796 1.62269 2.04685)
(2.3711 1.51144 2.01704)
(2.46062 1.48134 2.0019)
(2.82895 1.78158 2.25)
(2.62479 1.86212 2.17861)
(2.43643 1.81504 2.11698)
(2.33327 1.68628 2.06699)
(2.33713 1.55212 2.03015)
(2.41529 1.48095 2.0076)
(2.90053 1.71196 2.28869)
(2.71516 1.84851 2.21321)
(2.50782 1.85347 2.14645)
(2.36029 1.75045 2.09042)
(2.31779 1.607 2.04685)
(2.37059 1.5 2.01704)
(2.46242 1.47793 2.0019)
(2.95339 1.62328 2.32899)
(2.80278 1.80955 2.25)
(2.5923 1.87174 2.17861)
(2.40883 1.80819 2.11698)
(2.31746 1.67081 2.06699)
(2.33316 1.53753 2.03015)
(2.41731 1.47354 2.0076)
(2.98249 1.52136 2.37059)
(2.88023 1.74653 2.28869)
(2.68352 1.86616 2.21321)
(2.47655 1.85277 2.14645)
(2.3387 1.73713 2.09042)
(2.30904 1.59048 2.04685)
(2.3711 1.48856 2.01704)
(2.46452 1.4747 2.0019)
(2.94072 1.66287 2.32899)
(2.77424 1.8351 2.25)
(2.55908 1.87844 2.17861)
(2.38195 1.79893 2.11698)
(2.30307 1.65401 2.06699)
(2.33049 1.52263 2.03015)
(2.41997 1.46633 2.0076)
(2.85695 1.77917 2.28869)
(2.65044 1.88095 2.21321)
(2.44547 1.84932 2.14645)
(2.31837 1.72194 2.09042)
(2.30179 1.57325 2.04685)
(2.37261 1.47722 2.01704)
(2.46689 1.47166 2.0019)
(2.9246 1.70118 2.32899)
(2.74355 1.85803 2.25)
(2.5254 1.88218 2.17861)
(2.35599 1.78733 2.11698)
(2.29023 1.63601 2.06699)
(2.32916 1.50756 2.03015)
(2.42326 1.45939 2.0076)
(2.97119 1.60598 2.37059)
(2.83088 1.80962 2.28869)
(2.61618 1.89275 2.21321)
(2.4148 1.84313 2.14645)
(2.29947 1.70502 2.09042)
(2.29609 1.55544 2.04685)
(2.37512 1.46605 2.01704)
(2.46953 1.46885 2.0019)
(2.90515 1.73792 2.32899)
(2.71095 1.87815 2.25)
(2.49153 1.88293 2.17861)
(2.33116 1.77347 2.11698)
(2.27903 1.61693 2.06699)
(2.32916 1.49244 2.03015)
(2.42715 1.45277 2.0076)
(2.95998 1.64721 2.37059)
(2.80222 1.83765 2.28869)
(2.58102 1.90148 2.21321)
(2.38481 1.83426 2.14645)
(2.28213 1.68649 2.09042)
(2.29199 1.5372 2.04685)
(2.37861 1.45514 2.01704)
(2.4724 1.46628 2.0019)
(2.99048 1.54352 2.41318)
(2.88254 1.77279 2.32899)
(2.6767 1.89532 2.25)
(2.45772 1.88068 2.17861)
(2.30766 1.75748 2.11698)
(2.26956 1.59695 2.06699)
(2.33049 1.47737 2.03015)
(2.43161 1.44651 2.0076)
(2.94517 1.68729 2.37059)
(2.7712 1.86304 2.28869)
(2.54521 1.90707 2.21321)
(2.35572 1.82278 2.14645)
(2.2665 1.66651 2.09042)
(2.28952 1.51868 2.04685)
(2.38305 1.44459 2.01704)
(2.47549 1.46397 2.0019)
(2.85694 1.80554 2.32899)
(2.64108 1.90939 2.25)
(2.42424 1.87545 2.17861)
(2.28565 1.73948 2.11698)
(2.2619 1.5762 2.06699)
(2.33316 1.46247 2.03015)
(2.4366 1.44068 2.0076)
(2.92688 1.7259 2.37059)
(2.73805 1.88559 2.28869)
(2.50906 1.90948 2.21321)
(2.32776 1.80876 2.14645)
(2.2527 1.64522 2.09042)
(2.28869 1.5 2.04685)
(2.38841 1.43447 2.01704)
(2.47877 1.46194 2.0019)
(2.97515 1.6292 2.41318)
(2.82854 1.83589 2.32899)
(2.60434 1.92025 2.25)
(2.39135 1.86729 2.17861)
(2.26533 1.71959 2.11698)
(2.25609 1.55486 2.06699)
(2.33713 1.44788 2.03015)
(2.44209 1.43531 2.0076)
(2.99761 1.52203 2.45642)
(2.90524 1.76274 2.37059)
(2.70304 1.90512 2.28869)
(2.47284 1.90867 2.21321)
(2.30114 1.79233 2.14645)
(2.24083 1.6228 2.09042)
(2.28952 1.48132 2.04685)
(2.39464 1.42486 2.01704)
(2.48222 1.46022 2.0019)
(2.96187 1.67069 2.41318)
(2.79756 1.86361 2.32899)
(2.56679 1.92783 2.25)
(2.35931 1.85625 2.17861)
(2.24684 1.69799 2.11698)
(2.2522 1.53309 2.06699)
(2.34237 1.43368 2.03015)
(2.44804 1.43044 2.0076)
(2.88043 1.79753 2.37059)
(2.66644 1.92148 2.28869)
(2.43682 1.90467 2.21321)
(2.27609 1.77361 2.14645)
(2.23099 1.59941 2.09042)
(2.29199 1.4628 2.04685)
(2.40169 1.41585 2.01704)
(2.4858 1.4588 2.0019)
(2.94498 1.71084 2.41318)
(2.76427 1.88848 2.32899)
(2.52872 1.93206 2.25)
(2.32838 1.84242 2.17861)
(2.23033 1.67484 2.11698)
(2.25025 1.51106 2.06699)
(2.34885 1.42001 2.03015)
(2.45439 1.42612 2.0076)
(2.98596 1.6093 2.45642)
(2.85265 1.82999 2.37059)
(2.62854 1.93454 2.28869)
(2.4013 1.89751 2.21321)
(2.25278 1.75275 2.14645)
(2.22326 1.57525 2.09042)
(2.29609 1.44456 2.04685)
(2.40951 1.40749 2.01704)
(2.4895 1.45771 2.0019)
(2.92461 1.74934 2.41318)
(2.7289 1.91032 2.32899)
(2.49042 1.93291 2.25)
(2.29879 1.82591 2.17861)
(2.21593 1.65033 2.11698)
(2.25025 1.48894 2.06699)
(2.35651 1.40697 2.03015)
(2.4611 1.42238 2.0076)
(2.9744 1.65182 2.45642)
(2.8221 1.85986 2.37059)
(2.58963 1.9442 2.28869)
(2.36656 1.88723 2.21321)
(2.23141 1.72991 2.14645)
(2.21769 1.55049 2.09042)
(2.30179 1.42675 2.04685)
(2.41804 1.39985 2.01704)
(2.99804 1.54419 2.5)
(2.49328 1.45694 2.0019)
(2.90091 1.78589 2.41318)
(2.69174 1.92894 2.32899)
(2.4522 1.93037 2.25)
(2.27077 1.80686 2.17861)
(2.20376 1.62463 2.11698)
(2.2522 1.46691 2.06699)
(2.36529 1.39465 2.03015)
(2.46811 1.41925 2.0076)
(2.95912 1.69316 2.45642)
(2.78904 1.88692 2.37059)
(2.55002 1.95038 2.28869)
(2.33286 1.87392 2.21321)
(2.21214 1.70527 2.14645)
(2.21433 1.52535 2.09042)
(2.30904 1.40952 2.04685)
(2.42721 1.393 2.01704)
(2.49711 1.45652 2.0019)
(2.87407 1.8202 2.41318)
(2.65308 1.94421 2.32899)
(2.41435 1.92446 2.25)
(2.24455 1.7854 2.17861)
(2.1939 1.59796 2.11698)
(2.25609 1.44514 2.06699)
(2.37513 1.38316 2.03015)
(2.47537 1.41674 2.0076)
(2.94025 1.73298 2.45642)
(2.75371 1.91095 2.37059)
(2.51003 1.95304 2.28869)
(2.30047 1.85768 2.21321)
(2.19513 1.67903 2.14645)
(2.21321 1.5 2.09042)
(2.31779 1.393 2.04685)
(2.43695 1.38699 2.01704)
(2.98248 1.63119 2.5)
(2.50096 1.45643 2.0019)
(2.84431 1.85201 2.41318)
(2.61322 1.956 2.32899)
(2.37717 1.91523 2.25)
(2.22032 1.7617 2.17861)
(2.18644 1.57053 2.11698)
(2.2619 1.4238 2.06699)
(2.38595 1.37258 2.03015)
(2.99761 1.52203 2.54358)
(2.48283 1.41489 2.0076)
(2.91794 1.77097 2.45642)
(2.7164 1.93177 2.37059)
(2.46994 1.95216 2.28869)
(2.26963 1.83865 2.21321)
(2.1805 1.65138 2.14645)
(2.21433 1.47465 2.09042)
(2.32796 1.37731 2.04685)
(2.44719 1.38186 2.01704)
(2.969 1.67332 2.5)
(2.50481 1.45669 2.0019)
(2.81185 1.88107 2.41318)
(2.57247 1.96422 2.32899)
(2.34095 1.90275 2.25)
(2.19829 1.73596 2.17861)
(2.18143 1.54254 2.11698)
(2.26956 1.40305 2.06699)
(2.39766 1.363 2.03015)
(2.49042 1.41371 2.0076)
(2.89235 1.80685 2.45642)
(2.67739 1.94921 2.37059)
(2.4301 1.94773 2.28869)
(2.24061 1.81697 2.21321)
(2.16837 1.62255 2.14645)
(2.21769 1.44951 2.09042)
(2.33947 1.36259 2.04685)
(2.45784 1.37765 2.01704)
(2.95185 1.71409 2.5)
(2.50862 1.45728 2.0019)
(2.77695 1.90714 2.41318)
(2.53116 1.96881 2.32899)
(2.30598 1.88711 2.25)
(2.17862 1.70837 2.17861)
(2.17892 1.51422 2.11698)
(2.27903 1.38307 2.06699)
(2.41016 1.35449 2.03015)
(2.98596 1.6093 2.54358)
(2.49808 1.4132 2.0076)
(2.8637 1.84033 2.45642)
(2.637 1.96312 2.37059)
(2.39081 1.9398 2.28869)
(2.21361 1.7928 2.21321)
(2.15883 1.59276 2.14645)
(2.22326 1.42475 2.09042)
(2.35224 1.34894 2.04685)
(2.46882 1.3744 2.01704)
(2.93116 1.75319 2.5)
(2.51236 1.45821 2.0019)
(2.73989 1.93002 2.41318)
(2.48961 1.96973 2.32899)
(2.27253 1.86845 2.25)
(2.16146 1.67915 2.17861)
(2.17892 1.48578 2.11698)
(2.29023 1.36399 2.06699)
(2.42338 1.34712 2.03015)
(2.9744 1.65182 2.54358)
(2.50576 1.41337 2.0076)
(2.8322 1.87114 2.45642)
(2.59553 1.97342 2.37059)
(2.35236 1.92843 2.28869)
(2.18885 1.76634 2.21321)
(2.15197 1.56225 2.14645)
(2.23099 1.40059 2.09042)
(2.36617 1.33647 2.04685)
(2.99048 1.54352 2.58682)
(2.48004 1.37214 2.01704)
(2.90709 1.7903 2.5)
(2.51601 1.45947 2.0019)
(2.70094 1.94954 2.41318)
(2.44813 1.96697 2.32899)
(2.24085 1.8469 2.25)
(2.14695 1.64853 2.17861)
(2.18143 1.45746 2.11698)
(2.30307 1.34599 2.06699)
(2.43719 1.34094 2.03015)
(2.95912 1.69316 2.54358)
(2.51339 1.41421 2.0076)
(2.7981 1.89905 2.45642)
(2.55332 1.98001 2.37059)
(2.31507 1.9137 2.28869)
(2.16653 1.7378 2.21321)
(2.14783 1.53125 2.14645)
(2.24083 1.3772 2.09042)
(2.38115 1.32528 2.04685)
(2.49142 1.37088 2.01704)
(2.87984 1.82514 2.5)
(2.51953 1.46104 2.0019)
(2.66042 1.96554 2.41318)
(2.40706 1.96056 2.32899)
(2.21121 1.82264 2.25)
(2.1352 1.61675 2.17861)
(2.18644 1.42947 2.11698)
(2.31746 1.32919 2.06699)
(2.45149 1.33601 2.03015)
(2.94025 1.73298 2.54358)
(2.52092 1.41573 2.0076)
(2.76166 1.92383 2.45642)
(2.51068 1.98284 2.37059)
(2.27924 1.89574 2.28869)
(2.14682 1.7074 2.21321)
(2.14645 1.5 2.14645)
(2.2527 1.35478 2.09042)
(2.39706 1.31546 2.04685)
(2.97515 1.6292 2.58682)
(2.50286 1.37062 2.01704)
(2.84962 1.85744 2.5)
(2.52289 1.46292 2.0019)
(2.61865 1.97789 2.41318)
(2.36672 1.95055 2.32899)
(2.18382 1.79586 2.25)
(2.12631 1.58405 2.17861)
(2.1939 1.40204 2.11698)
(2.33327 1.31372 2.06699)
(2.46617 1.33237 2.03015)
(2.91794 1.77097 2.54358)
(2.52829 1.41791 2.0076)
(2.72318 1.9453 2.45642)
(2.46797 1.9819 2.37059)
(2.24512 1.87468 2.28869)
(2.12987 1.67537 2.21321)
(2.14783 1.46875 2.14645)
(2.2665 1.33349 2.09042)
(2.41377 1.30709 2.04685)
(2.96187 1.67069 2.58682)
(2.51429 1.37138 2.01704)
(2.81666 1.88694 2.5)
(2.52608 1.46509 2.0019)
(2.57595 1.98651 2.41318)
(2.32743 1.93701 2.32899)
(2.15891 1.76676 2.25)
(2.12035 1.55069 2.17861)
(2.20376 1.37537 2.11698)
(2.35038 1.29971 2.06699)
(2.97871 1.56392 2.62941)
(2.48112 1.33003 2.03015)
(2.89235 1.80685 2.54358)
(2.53543 1.42073 2.0076)
(2.68295 1.96328 2.45642)
(2.4255 1.97718 2.37059)
(2.21301 1.85069 2.28869)
(2.11582 1.64197 2.21321)
(2.15197 1.43775 2.14645)
(2.28213 1.31351 2.09042)
(2.43115 1.30022 2.04685)
(2.94498 1.71084 2.58682)
(2.5256 1.37315 2.01704)
(2.78122 1.91342 2.5)
(2.52906 1.46753 2.0019)
(2.53266 1.99132 2.41318)
(2.28948 1.92004 2.32899)
(2.13667 1.73557 2.25)
(2.11735 1.51694 2.17861)
(2.21593 1.34967 2.11698)
(2.36867 1.28727 2.06699)
(2.97119 1.60598 2.62941)
(2.49622 1.32903 2.03015)
(2.8637 1.84033 2.54358)
(2.5423 1.42418 2.0076)
(2.64129 1.97764 2.45642)
(2.38362 1.96873 2.37059)
(2.18314 1.82395 2.28869)
(2.10477 1.60746 2.21321)
(2.15883 1.40724 2.14645)
(2.29947 1.29498 2.09042)
(2.44908 1.29492 2.04685)
(2.92461 1.74934 2.58682)
(2.53671 1.37591 2.01704)
(2.74359 1.93665 2.5)
(2.53182 1.47022 2.0019)
(2.48911 1.99228 2.41318)
(2.25318 1.89979 2.32899)
(2.11727 1.70254 2.25)
(2.11735 1.48306 2.17861)
(2.23033 1.32516 2.11698)
(2.38798 1.2765 2.06699)
(2.95998 1.64721 2.62941)
(2.51134 1.32937 2.03015)
(2.8322 1.87114 2.54358)
(2.54883 1.42821 2.0076)
(2.59853 1.98826 2.45642)
(2.34265 1.95661 2.37059)
(2.15575 1.79468 2.28869)
(2.09682 1.57211 2.21321)
(2.16837 1.37745 2.14645)
(2.31837 1.27806 2.09042)
(2.96801 1.54153 2.67101)
(2.95976 1.5 2.69651)
(2.46741 1.29122 2.04685)
(2.90091 1.78589 2.58682)
(2.54753 1.37964 2.01704)
(2.70404 1.95647 2.5)
(2.53433 1.47315 2.0019)
(2.44564 1.98939 2.41318)
(2.21881 1.87641 2.32899)
(2.10087 1.66792 2.25)
(2.12035 1.44931 2.17861)
(2.24684 1.30201 2.11698)
(2.40817 1.26748 2.06699)
(2.94517 1.68729 2.62941)
(2.52638 1.33104 2.03015)
(2.7981 1.89905 2.54358)
(2.55499 1.43281 2.0076)
(2.55499 1.99505 2.45642)
(2.30291 1.94092 2.37059)
(2.13105 1.7631 2.28869)
(2.09203 1.5362 2.21321)
(2.1805 1.34862 2.14645)
(2.3387 1.26287 2.09042)
(2.48599 1.28916 2.04685)
(2.87407 1.8202 2.58682)
(2.55798 1.38431 2.01704)
(2.6629 1.97272 2.5)
(2.53657 1.47629 2.0019)
(2.4026 1.98267 2.41318)
(2.18664 1.85009 2.32899)
(2.08759 1.63198 2.25)
(2.12631 1.41595 2.17861)
(2.26533 1.28041 2.11698)
(2.42909 1.26027 2.06699)
(2.92688 1.7259 2.62941)
(2.54121 1.33403 2.03015)
(2.76166 1.92383 2.54358)
(2.56071 1.43793 2.0076)
(2.51102 1.99797 2.45642)
(2.26471 1.92177 2.37059)
(2.10924 1.72947 2.28869)
(2.09042 1.5 2.21321)
(2.19513 1.32097 2.14645)
(2.36029 1.24955 2.09042)
(2.95339 1.62328 2.67101)
(2.50467 1.28874 2.04685)
(2.84431 1.85201 2.58682)
(2.56798 1.38988 2.01704)
(2.62048 1.98527 2.5)
(2.53852 1.47962 2.0019)
(2.36032 1.97218 2.41318)
(2.15693 1.82103 2.32899)
(2.07754 1.59502 2.25)
(2.1352 1.38325 2.17861)
(2.28565 1.26052 2.11698)
(2.45055 1.25494 2.06699)
(2.90524 1.76274 2.62941)
(2.55572 1.33832 2.03015)
(2.72318 1.9453 2.54358)
(2.56596 1.44354 2.0076)
(2.46696 1.997 2.45642)
(2.22836 1.89933 2.37059)
(2.09049 1.69403 2.28869)
(2.09203 1.4638 2.21321)
(2.21214 1.29473 2.14645)
(2.38297 1.23818 2.09042)
(2.94072 1.66287 2.67101)
(2.52333 1.28998 2.04685)
(2.81185 1.88107 2.58682)
(2.57745 1.39632 2.01704)
(2.57712 1.99402 2.5)
(2.54017 1.4831 2.0019)
(2.31914 1.95799 2.41318)
(2.1299 1.78945 2.32899)
(2.0708 1.55731 2.25)
(2.14695 1.35147 2.17861)
(2.30766 1.24252 2.11698)
(2.94917 1.55998 2.71131)
(2.9403 1.5 2.73693)
(2.4724 1.25153 2.06699)
(2.88043 1.79753 2.62941)
(2.56979 1.34388 2.03015)
(2.68295 1.96328 2.54358)
(2.57069 1.44959 2.0076)
(2.42317 1.99214 2.45642)
(2.19413 1.87376 2.37059)
(2.07494 1.65708 2.28869)
(2.09682 1.42789 2.21321)
(2.23141 1.27009 2.14645)
(2.40656 1.22886 2.09042)
(2.9246 1.70118 2.67101)
(2.5418 1.29287 2.04685)
(2.77695 1.90714 2.58682)
(2.58631 1.40357 2.01704)
(2.53316 1.9989 2.5)
(2.5415 1.48672 2.0019)
(2.27937 1.94021 2.41318)
(2.10577 1.75561 2.32899)
(2.06741 1.51915 2.25)
(2.16146 1.32085 2.17861)
(2.33116 1.22653 2.11698)
(2.94211 1.59944 2.71131)
(2.49447 1.25006 2.06699)
(2.85265 1.82999 2.62941)
(2.58331 1.35066 2.03015)
(2.64129 1.97764 2.54358)
(2.57487 1.45604 2.0076)
(2.37998 1.98342 2.45642)
(2.16229 1.84526 2.37059)
(2.06272 1.6189 2.28869)
(2.10477 1.39254 2.21321)
(2.25278 1.24725 2.14645)
(2.43089 1.22166 2.09042)
(2.90515 1.73792 2.67101)
(2.55994 1.29737 2.04685)
(2.73989 1.93002 2.58682)
(2.59449 1.41158 2.01704)
(2.48894 1.99988 2.5)
(2.54252 1.49044 2.0019)
(2.24133 1.91899 2.41318)
(2.08472 1.71976 2.32899)
(2.06741 1.48085 2.25)
(2.17862 1.29163 2.17861)
(2.35599 1.21267 2.11698)
(2.93159 1.63812 2.71131)
(2.51658 1.25055 2.06699)
(2.8221 1.85986 2.62941)
(2.59618 1.3586 2.03015)
(2.59853 1.98826 2.54358)
(2.57846 1.46282 2.0076)
(2.33772 1.97092 2.45642)
(2.1331 1.81406 2.37059)
(2.05393 1.57979 2.28869)
(2.11582 1.35803 2.21321)
(2.27609 1.22639 2.14645)
(2.93132 1.53827 2.75)
(2.91729 1.5 2.77545)
(2.45576 1.21664 2.09042)
(2.88254 1.77279 2.67101)
(2.57761 1.30346 2.04685)
(2.70094 1.94954 2.58682)
(2.60194 1.42028 2.01704)
(2.4448 1.99694 2.5)
(2.54319 1.49423 2.0019)
(2.20531 1.89449 2.41318)
(2.06692 1.6822 2.32899)
(2.0708 1.44269 2.25)
(2.19829 1.26404 2.17861)
(2.38195 1.20107 2.11698)
(2.91769 1.67573 2.71131)
(2.53856 1.25299 2.06699)
(2.78904 1.88692 2.62941)
(2.6083 1.36766 2.03015)
(2.55499 1.99505 2.54358)
(2.58144 1.4699 2.0076)
(2.29674 1.95474 2.45642)
(2.10678 1.78041 2.37059)
(2.04862 1.54005 2.28869)
(2.12987 1.32463 2.21321)
(2.30114 1.20767 2.14645)
(2.92625 1.57624 2.75)
(2.48098 1.21384 2.09042)
(2.85694 1.80554 2.67101)
(2.59468 1.31109 2.04685)
(2.66042 1.96554 2.58682)
(2.60858 1.4296 2.01704)
(2.4011 1.99012 2.5)
(2.1716 1.8669 2.41318)
(2.05251 1.64321 2.32899)
(2.07754 1.40498 2.25)
(2.22032 1.2383 2.17861)
(2.40883 1.19181 2.11698)
(2.90053 1.71196 2.71131)
(2.56024 1.25737 2.06699)
(2.75371 1.91095 2.62941)
(2.61958 1.37775 2.03015)
(2.51102 1.99797 2.54358)
(2.58378 1.47722 2.0076)
(2.25734 1.93499 2.45642)
(2.08353 1.74456 2.37059)
(2.04685 1.5 2.28869)
(2.14682 1.2926 2.21321)
(2.32776 1.19124 2.14645)
(2.91784 1.61361 2.75)
(2.50634 1.21328 2.09042)
(2.82854 1.83589 2.67101)
(2.61101 1.3202 2.04685)
(2.61865 1.97789 2.58682)
(2.61438 1.43947 2.01704)
(2.35817 1.97946 2.5)
(2.14046 1.83644 2.41318)
(2.04161 1.6031 2.32899)
(2.08759 1.36802 2.25)
(2.24455 1.2146 2.17861)
(2.43643 1.18496 2.11698)
(2.88023 1.74653 2.71131)
(2.58145 1.26364 2.06699)
(2.7164 1.93177 2.62941)
(2.62991 1.38879 2.03015)
(2.46696 1.997 2.54358)
(2.58547 1.48471 2.0076)
(2.21985 1.91184 2.45642)
(2.06355 1.70679 2.37059)
(2.04862 1.45995 2.28869)
(2.16653 1.2622 2.21321)
(2.35572 1.17722 2.14645)
(2.90617 1.6501 2.75)
(2.53166 1.21496 2.09042)
(2.79756 1.86361 2.67101)
(2.62646 1.33071 2.04685)
(2.57595 1.98651 2.58682)
(2.61928 1.44982 2.01704)
(2.31635 1.96505 2.5)
(2.11213 1.80334 2.41318)
(2.03429 1.56219 2.32899)
(2.10087 1.33208 2.25)
(2.27077 1.19314 2.17861)
(2.90597 1.55421 2.78679)
(2.89092 1.5 2.81174)
(2.46452 1.18057 2.11698)
(2.85695 1.77917 2.71131)
(2.60202 1.27176 2.06699)
(2.67739 1.94921 2.62941)
(2.63923 1.40071 2.03015)
(2.42317 1.99214 2.54358)
(2.18454 1.88547 2.45642)
(2.04698 1.66741 2.37059)
(2.05393 1.42021 2.28869)
(2.18885 1.23366 2.21321)
(2.38481 1.16574 2.14645)
(2.89131 1.68541 2.75)
(2.55673 1.21888 2.09042)
(2.76427 1.88848 2.67101)
(2.64093 1.34255 2.04685)
(2.53266 1.99132 2.58682)
(2.62325 1.46055 2.01704)
(2.27597 1.947 2.5)
(2.08684 1.76788 2.41318)
(2.03061 1.52078 2.32899)
(2.11727 1.29746 2.25)
(2.29879 1.17409 2.17861)
(2.89959 1.58988 2.78679)
(2.49289 1.17868 2.11698)
(2.83088 1.80962 2.71131)
(2.62179 1.28167 2.06699)
(2.637 1.96312 2.62941)
(2.64746 1.4134 2.03015)
(2.37998 1.98342 2.54358)
(2.15171 1.85608 2.45642)
(2.03396 1.62672 2.37059)
(2.06272 1.3811 2.28869)
(2.21361 1.2072 2.21321)
(2.4148 1.15687 2.14645)
(2.87339 1.71927 2.75)
(2.58135 1.22499 2.09042)
(2.7289 1.91032 2.67101)
(2.65429 1.35562 2.04685)
(2.48911 1.99228 2.58682)
(2.62626 1.4716 2.01704)
(2.23734 1.92545 2.5)
(2.06478 1.73031 2.41318)
(2.03061 1.47922 2.32899)
(2.13667 1.26443 2.25)
(2.32838 1.15758 2.17861)
(2.89009 1.62484 2.78679)
(2.52132 1.17931 2.11698)
(2.80222 1.83765 2.71131)
(2.64061 1.29329 2.06699)
(2.59553 1.97342 2.62941)
(2.65454 1.42678 2.03015)
(2.33772 1.97092 2.54358)
(2.1216 1.82391 2.45642)
(2.02458 1.58503 2.37059)
(2.07494 1.34292 2.28869)
(2.24061 1.18303 2.21321)
(2.88152 1.53385 2.82139)
(2.44547 1.15068 2.14645)
(2.85255 1.75141 2.75)
(2.60534 1.23326 2.09042)
(2.69174 1.92894 2.67101)
(2.66645 1.36982 2.04685)
(2.44564 1.98939 2.58682)
(2.62827 1.48287 2.01704)
(2.20076 1.90057 2.5)
(2.04613 1.69095 2.41318)
(2.03429 1.43781 2.32899)
(2.15891 1.23324 2.25)
(2.35931 1.14375 2.17861)
(2.87753 1.65883 2.78679)
(2.54958 1.18245 2.11698)
(2.7712 1.86304 2.71131)
(2.65833 1.30653 2.06699)
(2.55332 1.98001 2.62941)
(2.66041 1.44072 2.03015)
(2.29674 1.95474 2.54358)
(2.09446 1.7892 2.45642)
(2.01893 1.54268 2.37059)
(2.09049 1.30597 2.28869)
(2.26963 1.16135 2.21321)
(2.87704 1.56744 2.82139)
(2.47655 1.14723 2.14645)
(2.82895 1.78158 2.75)
(2.6285 1.24361 2.09042)
(2.65308 1.94421 2.67101)
(2.6773 1.38504 2.04685)
(2.4026 1.98267 2.58682)
(2.16653 1.87256 2.5)
(2.03103 1.65009 2.41318)
(2.04161 1.3969 2.32899)
(2.18382 1.20414 2.25)
(2.39135 1.13271 2.17861)
(2.86201 1.69157 2.78679)
(2.57745 1.18808 2.11698)
(2.73805 1.88559 2.71131)
(2.67481 1.32128 2.06699)
(2.51068 1.98284 2.62941)
(2.66502 1.45513 2.03015)
(2.25734 1.93499 2.54358)
(2.07048 1.75222 2.45642)
(2.01704 1.5 2.37059)
(2.10924 1.27053 2.28869)
(2.30047 1.14232 2.21321)
(2.8696 1.6005 2.82139)
(2.50782 1.14653 2.14645)
(2.80278 1.80955 2.75)
(2.65066 1.25597 2.09042)
(2.61322 1.956 2.67101)
(2.68677 1.40116 2.04685)
(2.36032 1.97218 2.58682)
(2.13491 1.84163 2.5)
(2.0196 1.60805 2.41318)
(2.05251 1.35679 2.32899)
(2.21121 1.17736 2.25)
(2.42424 1.12455 2.17861)
(2.84366 1.72282 2.78679)
(2.60471 1.19614 2.11698)
(2.70304 1.90512 2.71131)
(2.68992 1.33743 2.06699)
(2.46797 1.9819 2.62941)
(2.66834 1.46989 2.03015)
(2.21985 1.91184 2.54358)
(2.04987 1.71327 2.45642)
(2.01893 1.45732 2.37059)
(2.13105 1.2369 2.28869)
(2.33286 1.12608 2.21321)
(2.85928 1.63277 2.82139)
(2.53903 1.14861 2.14645)
(2.77424 1.8351 2.75)
(2.67163 1.27024 2.09042)
(2.57247 1.96422 2.67101)
(2.69477 1.41806 2.04685)
(2.31914 1.95799 2.58682)
(2.10615 1.80802 2.5)
(2.01193 1.56517 2.41318)
(2.06692 1.3178 2.32899)
(2.24085 1.1531 2.25)
(2.85044 1.54679 2.85355)
(2.45772 1.11932 2.17861)
(2.82263 1.75232 2.78679)
(2.63116 1.20659 2.11698)
(2.66644 1.92148 2.71131)
(2.70355 1.35485 2.06699)
(2.4255 1.97718 2.62941)
(2.18454 1.88547 2.54358)
(2.03278 1.67266 2.45642)
(2.02458 1.41497 2.37059)
(2.15575 1.20532 2.28869)
(2.36656 1.11277 2.21321)
(2.84613 1.664 2.82139)
(2.56993 1.15343 2.14645)
(2.74355 1.85803 2.75)
(2.69127 1.28631 2.09042)
(2.53116 1.96881 2.67101)
(2.70125 1.43559 2.04685)
(2.27937 1.94021 2.58682)
(2.08046 1.77201 2.5)
(2.00808 1.52178 2.41318)
(2.08472 1.28024 2.32899)
(2.27253 1.13155 2.25)
(2.84494 1.57758 2.85355)
(2.49153 1.11707 2.17861)
(2.79906 1.77984 2.78679)
(2.65657 1.21932 2.11698)
(2.62854 1.93454 2.71131)
(2.71558 1.37341 2.06699)
(2.38362 1.96873 2.62941)
(2.15171 1.85608 2.54358)
(2.01935 1.63069 2.45642)
(2.03396 1.37328 2.37059)
(2.18314 1.17605 2.28869)
(2.4013 1.10249 2.21321)
(2.83029 1.69395 2.82139)
(2.60029 1.16097 2.14645)
(2.71095 1.87815 2.75)
(2.70941 1.30405 2.09042)
(2.48961 1.96973 2.67101)
(2.70616 1.45363 2.04685)
(2.24133 1.91899 2.58682)
(2.05806 1.73387 2.5)
(2.00808 1.47822 2.41318)
(2.10577 1.24439 2.32899)
(2.30598 1.11289 2.25)
(2.83673 1.60776 2.85355)
(2.5254 1.11782 2.17861)
(2.77316 1.80518 2.78679)
(2.68077 1.23426 2.11698)
(2.58963 1.9442 2.71131)
(2.72592 1.39295 2.06699)
(2.34265 1.95661 2.62941)
(2.1216 1.82391 2.54358)
(2.00968 1.5877 2.45642)
(2.04698 1.33259 2.37059)
(2.21301 1.14931 2.28869)
(2.82014 1.5284 2.88302)
(2.43682 1.09533 2.21321)
(2.81185 1.72238 2.82139)
(2.62986 1.17116 2.14645)
(2.6767 1.89532 2.75)
(2.7259 1.32332 2.09042)
(2.44813 1.96697 2.67101)
(2.20531 1.89449 2.58682)
(2.03913 1.69389 2.5)
(2.01193 1.43483 2.41318)
(2.1299 1.21055 2.32899)
(2.34095 1.09725 2.25)
(2.82589 1.6371 2.85355)
(2.55908 1.12156 2.17861)
(2.74512 1.82813 2.78679)
(2.70355 1.25128 2.11698)
(2.55002 1.95038 2.71131)
(2.7345 1.41334 2.06699)
(2.30291 1.94092 2.62941)
(2.09446 1.7892 2.54358)
(2.00385 1.54402 2.45642)
(2.06355 1.29321 2.37059)
(2.24512 1.12532 2.28869)
(2.81637 1.55659 2.88302)
(2.47284 1.09133 2.21321)
(2.79098 1.74908 2.82139)
(2.65842 1.18392 2.14645)
(2.64108 1.90939 2.75)
(2.74064 1.34398 2.09042)
(2.40706 1.96056 2.67101)
(2.7111 1.49065 2.04685)
(2.1716 1.8669 2.58682)
(2.02379 1.6524 2.5)
(2.0196 1.39195 2.41318)
(2.15693 1.17897 2.32899)
(2.37717 1.08477 2.25)
(2.81249 1.66537 2.85355)
(2.5923 1.12826 2.17861)
(2.71516 1.84851 2.78679)
(2.72473 1.27024 2.11698)
(2.51003 1.95304 2.71131)
(2.74124 1.4344 2.06699)
(2.26471 1.92177 2.62941)
(2.07048 1.75222 2.54358)
(2.0019 1.5 2.45642)
(2.08353 1.25544 2.37059)
(2.27924 1.10426 2.28869)
(2.81013 1.58433 2.88302)
(2.50906 1.09052 2.21321)
(2.76782 1.77382 2.82139)
(2.68573 1.19916 2.14645)
(2.60434 1.92025 2.75)
(2.75348 1.36586 2.09042)