/*--------------------------------*- C++ -*----------------------------------*\
| =========                 |                                                 |
| \\      /  F ield         | OpenFOAM: The Open Source CFD Toolbox           |
|  \\    /   O peration     | Version:  v2012                                 |
|   \\  /    A nd           | Website:  www.openfoam.com                      |
|    \\/     M anipulation  |                                                 |
\*---------------------------------------------------------------------------*/
FoamFile
{
    version     2.0;
    format      ascii;
    class       dictionary;
    object      snappyHexMeshDict.cfg;
}
// * * * * * * * * * * * * * * * * * * * * * * * * * * * * * * * * * * * * * //

castellatedMesh true;
snap            true;
addLayers       false;

geometry
{
    Sphere.stl
    {
        type        triSurfaceMesh;
        name        sphere;
        
    }
}
castellatedMeshControls
{
    maxLocalCells       10000;
    maxGlobalCells      200000;
    minRefinementCells  10;
    maxLoadUnbalance    0.10;
    nCellsBetweenLevels 3;
    resolveFeatureAngle 30;
   
    features
    ( 
        {
            file        "Sphere.eMesh";
            level       4;
        }

    );
    refinementSurfaces
    {
        
        sphere
        {
            level       (4 5);
        }
       
    }
    refinementRegions
    {
    
    }
    
     locationInMesh (2 7 2);
      allowFreeStandingZoneFaces true;
}

snapControls
{
    nSmoothPatch    3;
    tolerance       2.0;
    nSolveIter      50;
    nRelaxIter      5;

    nFeatureSnapIter 10;

    explicitFeatureSnap    false;
    multiRegionFeatureSnap false;
    implicitFeatureSnap    true;
}

addLayersControls
{
    featureAngle              100;
    slipFeatureAngle          30;

    nLayerIter                50;
    nRelaxedIter              20;
    nRelaxIter                5;

    nGrow                     0;

    nSmoothSurfaceNormals     1;
    nSmoothNormals            3;
    nSmoothThickness          10;
    maxFaceThicknessRatio     0.5;
    maxThicknessToMedialRatio 0.3;

    minMedialAxisAngle        90;
    nMedialAxisIter           10;

    nBufferCellsNoExtrude     0;
    additionalReporting       false;
//    nSmoothDisplacement       0;
//    detectExtrusionIsland     false;
}

meshQualityControls
{
    
    maxNonOrtho 65;

    
    maxBoundarySkewness 20;
    maxInternalSkewness 4;

    maxConcave 80;

    minVol 1e-13;

    
    minTetQuality -1; // 1e-30;

   
    minArea -1;

    minTwist 0.01;

    
    minDeterminant 0.001;

    minFaceWeight 0.05;

   
    minVolRatio 0.01;

  
    minTriangleTwist -1;

    nSmoothScale 4;
   
    errorReduction 0.75;

    relaxed
    {
        //- Maximum non-orthogonality allowed. Set to 180 to disable.
        maxNonOrtho 75;
    }
}

debug 0;
mergeTolerance 1e-6;

// ************************************************************************* //
